Questionable use of curly braces in "let voltage = {voltage} + 0.05"
    Error: undefined symbol in: "[voltage]"
Questionable use of curly braces in "alter vdd = {voltage}"
    Error: undefined symbol in: "[voltage]"
Questionable use of curly braces in "let w_new = {wmin*n}"
    Error: undefined symbol in: "wmin*[n]"
Questionable use of curly braces in "let as_new = {w_new*ldiff}"
    Error: undefined symbol in: "[w_new]*ldiff"
Questionable use of curly braces in "let ad_new = {w_new*ldiff}"
    Error: undefined symbol in: "[w_new]*ldiff"
Questionable use of curly braces in "alter mn w={w_new} as={as_new} ad={ad_new} ps={ps_new} pd={pd_new}"
    Error: undefined symbol in: "[w_new]"
Questionable use of curly braces in "alter mn w=(w_new) as={as_new} ad={ad_new} ps={ps_new} pd={pd_new}"
    Error: undefined symbol in: "[as_new]"
Questionable use of curly braces in "alter mn w=(w_new) as=(as_new) ad={ad_new} ps={ps_new} pd={pd_new}"
    Error: undefined symbol in: "[ad_new]"
Questionable use of curly braces in "alter mn w=(w_new) as=(as_new) ad=(ad_new) ps={ps_new} pd={pd_new}"
    Error: undefined symbol in: "[ps_new]"
Questionable use of curly braces in "alter mn w=(w_new) as=(as_new) ad=(ad_new) ps=(ps_new) pd={pd_new}"
    Error: undefined symbol in: "[pd_new]"
Questionable use of curly braces in "let n = {n} + 1"
    Error: undefined symbol in: "[n]"
Circuit: *CONDUCTION NMOS W1

Fatal Error: Multiple instances of "Alter"
