Circuit: *

Fatal Error: Syntax error in coupled transmission line statement: "print v(drain_inter)"
