Circuit: *Leakage current/power in NAND2 cell

Fatal Error: Syntax error in coupled transmission line statement: "print v(nodez)"
